examples/test_perturbation_outputs/pert_min_cost/pglib_opf_case73_ieee_rts.m
%% MATPOWER Case Format : Version 2
function mpc = pglib_opf_case73_ieee_rts
mpc.version = '2';

%%-----  Power Flow Data  -----%%
%% system MVA base
mpc.baseMVA = 100.0;
%% bus data
%    bus_i    type    Pd    Qd    Gs    Bs    area    Vm    Va    baseKV    zone    Vmax    Vmin
mpc.bus = [
	101	2	108.0	22.0	0.0	0.0	1	1.0	0.0	138.0	1	1.05	0.95				
	102	2	97.0	20.0	0.0	0.0	1	1.0	0.0	138.0	1	1.05	0.95				
	103	1	180.0	37.0	0.0	0.0	1	1.0	0.0	138.0	1	1.05	0.95				
	104	1	74.0	15.0	0.0	0.0	1	1.0	0.0	138.0	1	1.05	0.95				
	105	1	71.0	14.000000000000002	0.0	0.0	1	1.0	0.0	138.0	1	1.05	0.95				
	106	1	136.0	28.000000000000004	0.0	-100.0	1	1.0	0.0	138.0	1	1.05	0.95				
	107	2	125.0	25.0	0.0	0.0	1	1.0	0.0	138.0	1	1.05	0.95				
	108	1	171.0	35.0	0.0	0.0	1	1.0	0.0	138.0	1	1.05	0.95				
	109	1	175.0	36.0	0.0	0.0	1	1.0	0.0	138.0	1	1.05	0.95				
	110	1	195.0	40.0	0.0	0.0	1	1.0	0.0	138.0	1	1.05	0.95				
	111	1	0.0	0.0	0.0	0.0	1	1.0	0.0	230.0	1	1.05	0.95				
	112	1	0.0	0.0	0.0	0.0	1	1.0	0.0	230.0	1	1.05	0.95				
	113	3	265.0	54.0	0.0	0.0	1	1.0	0.0	230.0	1	1.05	0.95				
	114	2	194.0	39.0	0.0	0.0	1	1.0	0.0	230.0	1	1.05	0.95				
	115	2	317.0	64.0	0.0	0.0	1	1.0	0.0	230.0	1	1.05	0.95				
	116	2	100.0	20.0	0.0	0.0	1	1.0	0.0	230.0	1	1.05	0.95				
	117	1	0.0	0.0	0.0	0.0	1	1.0	0.0	230.0	1	1.05	0.95				
	118	2	333.0	68.0	0.0	0.0	1	1.0	0.0	230.0	1	1.05	0.95				
	119	1	181.0	37.0	0.0	0.0	1	1.0	0.0	230.0	1	1.05	0.95				
	120	1	128.0	26.0	0.0	0.0	1	1.0	0.0	230.0	1	1.05	0.95				
	121	2	0.0	0.0	0.0	0.0	1	1.0	0.0	230.0	1	1.05	0.95				
	122	2	0.0	0.0	0.0	0.0	1	1.0	0.0	230.0	1	1.05	0.95				
	123	2	0.0	0.0	0.0	0.0	1	1.0	0.0	230.0	1	1.05	0.95				
	124	1	0.0	0.0	0.0	0.0	1	1.0	0.0	230.0	1	1.05	0.95				
	201	2	108.0	22.0	0.0	0.0	2	1.0	0.0	138.0	2	1.05	0.95				
	202	2	97.0	20.0	0.0	0.0	2	1.0	0.0	138.0	2	1.05	0.95				
	203	1	180.0	37.0	0.0	0.0	2	1.0	0.0	138.0	2	1.05	0.95				
	204	1	74.0	15.0	0.0	0.0	2	1.0	0.0	138.0	2	1.05	0.95				
	205	1	71.0	14.000000000000002	0.0	0.0	2	1.0	0.0	138.0	2	1.05	0.95				
	206	1	136.0	28.000000000000004	0.0	-100.0	2	1.0	0.0	138.0	2	1.05	0.95				
	207	2	125.0	25.0	0.0	0.0	2	1.0	0.0	138.0	2	1.05	0.95				
	208	1	171.0	35.0	0.0	0.0	2	1.0	0.0	138.0	2	1.05	0.95				
	209	1	175.0	36.0	0.0	0.0	2	1.0	0.0	138.0	2	1.05	0.95				
	210	1	195.0	40.0	0.0	0.0	2	1.0	0.0	138.0	2	1.05	0.95				
	211	1	0.0	0.0	0.0	0.0	2	1.0	0.0	230.0	2	1.05	0.95				
	212	1	0.0	0.0	0.0	0.0	2	1.0	0.0	230.0	2	1.05	0.95				
	213	2	265.0	54.0	0.0	0.0	2	1.0	0.0	230.0	2	1.05	0.95				
	214	2	194.0	39.0	0.0	0.0	2	1.0	0.0	230.0	2	1.05	0.95				
	215	2	317.0	64.0	0.0	0.0	2	1.0	0.0	230.0	2	1.05	0.95				
	216	2	100.0	20.0	0.0	0.0	2	1.0	0.0	230.0	2	1.05	0.95				
	217	1	0.0	0.0	0.0	0.0	2	1.0	0.0	230.0	2	1.05	0.95				
	218	2	333.0	68.0	0.0	0.0	2	1.0	0.0	230.0	2	1.05	0.95				
	219	1	181.0	37.0	0.0	0.0	2	1.0	0.0	230.0	2	1.05	0.95				
	220	1	128.0	26.0	0.0	0.0	2	1.0	0.0	230.0	2	1.05	0.95				
	221	2	0.0	0.0	0.0	0.0	2	1.0	0.0	230.0	2	1.05	0.95				
	222	2	0.0	0.0	0.0	0.0	2	1.0	0.0	230.0	2	1.05	0.95				
	223	2	0.0	0.0	0.0	0.0	2	1.0	0.0	230.0	2	1.05	0.95				
	224	1	0.0	0.0	0.0	0.0	2	1.0	0.0	230.0	2	1.05	0.95				
	301	2	108.0	22.0	0.0	0.0	3	1.0	0.0	138.0	3	1.05	0.95				
	302	2	97.0	20.0	0.0	0.0	3	1.0	0.0	138.0	3	1.05	0.95				
	303	1	180.0	37.0	0.0	0.0	3	1.0	0.0	138.0	3	1.05	0.95				
	304	1	74.0	15.0	0.0	0.0	3	1.0	0.0	138.0	3	1.05	0.95				
	305	1	71.0	14.000000000000002	0.0	0.0	3	1.0	0.0	138.0	3	1.05	0.95				
	306	1	136.0	28.000000000000004	0.0	-100.0	3	1.0	0.0	138.0	3	1.05	0.95				
	307	2	125.0	25.0	0.0	0.0	3	1.0	0.0	138.0	3	1.05	0.95				
	308	1	171.0	35.0	0.0	0.0	3	1.0	0.0	138.0	3	1.05	0.95				
	309	1	175.0	36.0	0.0	0.0	3	1.0	0.0	138.0	3	1.05	0.95				
	310	1	195.0	40.0	0.0	0.0	3	1.0	0.0	138.0	3	1.05	0.95				
	311	1	0.0	0.0	0.0	0.0	3	1.0	0.0	230.0	3	1.05	0.95				
	312	1	0.0	0.0	0.0	0.0	3	1.0	0.0	230.0	3	1.05	0.95				
	313	2	265.0	54.0	0.0	0.0	3	1.0	0.0	230.0	3	1.05	0.95				
	314	2	194.0	39.0	0.0	0.0	3	1.0	0.0	230.0	3	1.05	0.95				
	315	2	317.0	64.0	0.0	0.0	3	1.0	0.0	230.0	3	1.05	0.95				
	316	2	100.0	20.0	0.0	0.0	3	1.0	0.0	230.0	3	1.05	0.95				
	317	1	0.0	0.0	0.0	0.0	3	1.0	0.0	230.0	3	1.05	0.95				
	318	2	333.0	68.0	0.0	0.0	3	1.0	0.0	230.0	3	1.05	0.95				
	319	1	181.0	37.0	0.0	0.0	3	1.0	0.0	230.0	3	1.05	0.95				
	320	1	128.0	26.0	0.0	0.0	3	1.0	0.0	230.0	3	1.05	0.95				
	321	2	0.0	0.0	0.0	0.0	3	1.0	0.0	230.0	3	1.05	0.95				
	322	2	0.0	0.0	0.0	0.0	3	1.0	0.0	230.0	3	1.05	0.95				
	323	2	0.0	0.0	0.0	0.0	3	1.0	0.0	230.0	3	1.05	0.95				
	324	1	0.0	0.0	0.0	0.0	3	1.0	0.0	230.0	3	1.05	0.95				
	325	1	0.0	0.0	0.0	0.0	3	1.0	0.0	230.0	3	1.05	0.95				
];

%% generator data
%    bus    Pg    Qg    Qmax    Qmin    Vg    mBase    status    Pmax    Pmin    Pc1    Pc2    Qc1min    Qc1max    Qc2min    Qc2max    ramp_agc    ramp_10    ramp_30    ramp_q    apf
mpc.gen = [
	101	18.0	5.0	10.0	0.0	1.0	100.0	1	20.0	16.0															
	101	18.0	5.0	10.0	0.0	1.0	100.0	1	20.0	16.0															
	101	45.6	2.5	30.0	-25.0	1.0	100.0	1	76.0	15.2															
	101	45.6	2.5	30.0	-25.0	1.0	100.0	1	76.0	15.2															
	102	18.0	5.0	10.0	0.0	1.0	100.0	1	20.0	16.0															
	102	18.0	5.0	10.0	0.0	1.0	100.0	1	20.0	16.0															
	102	45.6	2.5	30.0	-25.0	1.0	100.0	1	76.0	15.2															
	102	45.6	2.5	30.0	-25.0	1.0	100.0	1	76.0	15.2															
	107	62.5	30.0	60.0	0.0	1.0	100.0	1	100.0	25.0															
	107	62.5	30.0	60.0	0.0	1.0	100.0	1	100.0	25.0															
	107	62.5	30.0	60.0	0.0	1.0	100.0	1	100.0	25.0															
	113	133.0	40.0	80.0	0.0	1.0	100.0	1	197.0	69.0															
	113	133.0	40.0	80.0	0.0	1.0	100.0	1	197.0	69.0															
	113	133.0	40.0	80.0	0.0	1.0	100.0	1	197.0	69.0															
	114	0.0	75.0	200.0	-50.0	1.0	100.0	1	0.0	0.0															
	115	7.200000000000001	3.0	6.0	0.0	1.0	100.0	1	12.0	2.4															
	115	7.200000000000001	3.0	6.0	0.0	1.0	100.0	1	12.0	2.4															
	115	7.200000000000001	3.0	6.0	0.0	1.0	100.0	1	12.0	2.4															
	115	7.200000000000001	3.0	6.0	0.0	1.0	100.0	1	12.0	2.4															
	115	7.200000000000001	3.0	6.0	0.0	1.0	100.0	1	12.0	2.4															
	115	104.65	15.0	80.0	-50.0	1.0	100.0	1	155.0	54.29999999999999															
	116	104.65	15.0	80.0	-50.0	1.0	100.0	1	155.0	54.29999999999999															
	118	250.0	75.0	200.0	-50.0	1.0	100.0	1	400.0	100.0															
	121	250.0	75.0	200.0	-50.0	1.0	100.0	1	400.0	100.0															
	122	30.0	3.0	16.0	-10.0	1.0	100.0	1	50.0	10.0															
	122	30.0	3.0	16.0	-10.0	1.0	100.0	1	50.0	10.0															
	122	30.0	3.0	16.0	-10.0	1.0	100.0	1	50.0	10.0															
	122	30.0	3.0	16.0	-10.0	1.0	100.0	1	50.0	10.0															
	122	30.0	3.0	16.0	-10.0	1.0	100.0	1	50.0	10.0															
	122	30.0	3.0	16.0	-10.0	1.0	100.0	1	50.0	10.0															
	123	104.65	15.0	80.0	-50.0	1.0	100.0	1	155.0	54.29999999999999															
	123	104.65	15.0	80.0	-50.0	1.0	100.0	1	155.0	54.29999999999999															
	123	245.00000000000003	62.5	150.0	-25.0	1.0	100.0	1	350.0	140.0															
	201	18.0	5.0	10.0	0.0	1.0	100.0	1	20.0	16.0															
	201	18.0	5.0	10.0	0.0	1.0	100.0	1	20.0	16.0															
	201	45.6	2.5	30.0	-25.0	1.0	100.0	1	76.0	15.2															
	201	45.6	2.5	30.0	-25.0	1.0	100.0	1	76.0	15.2															
	202	18.0	5.0	10.0	0.0	1.0	100.0	1	20.0	16.0															
	202	18.0	5.0	10.0	0.0	1.0	100.0	1	20.0	16.0															
	202	45.6	2.5	30.0	-25.0	1.0	100.0	1	76.0	15.2															
	202	45.6	2.5	30.0	-25.0	1.0	100.0	1	76.0	15.2															
	207	62.5	30.0	60.0	0.0	1.0	100.0	1	100.0	25.0															
	207	62.5	30.0	60.0	0.0	1.0	100.0	1	100.0	25.0															
	207	62.5	30.0	60.0	0.0	1.0	100.0	1	100.0	25.0															
	213	133.0	40.0	80.0	0.0	1.0	100.0	1	197.0	69.0															
	213	133.0	40.0	80.0	0.0	1.0	100.0	1	197.0	69.0															
	213	133.0	40.0	80.0	0.0	1.0	100.0	1	197.0	69.0															
	214	0.0	75.0	200.0	-50.0	1.0	100.0	1	0.0	0.0															
	215	7.200000000000001	3.0	6.0	0.0	1.0	100.0	1	12.0	2.4															
	215	7.200000000000001	3.0	6.0	0.0	1.0	100.0	1	12.0	2.4															
	215	7.200000000000001	3.0	6.0	0.0	1.0	100.0	1	12.0	2.4															
	215	7.200000000000001	3.0	6.0	0.0	1.0	100.0	1	12.0	2.4															
	215	7.200000000000001	3.0	6.0	0.0	1.0	100.0	1	12.0	2.4															
	215	104.65	15.0	80.0	-50.0	1.0	100.0	1	155.0	54.29999999999999															
	216	104.65	15.0	80.0	-50.0	1.0	100.0	1	155.0	54.29999999999999															
	218	250.0	75.0	200.0	-50.0	1.0	100.0	1	400.0	100.0															
	221	250.0	75.0	200.0	-50.0	1.0	100.0	1	400.0	100.0															
	222	30.0	3.0	16.0	-10.0	1.0	100.0	1	50.0	10.0															
	222	30.0	3.0	16.0	-10.0	1.0	100.0	1	50.0	10.0															
	222	30.0	3.0	16.0	-10.0	1.0	100.0	1	50.0	10.0															
	222	30.0	3.0	16.0	-10.0	1.0	100.0	1	50.0	10.0															
	222	30.0	3.0	16.0	-10.0	1.0	100.0	1	50.0	10.0															
	222	30.0	3.0	16.0	-10.0	1.0	100.0	1	50.0	10.0															
	223	104.65	15.0	80.0	-50.0	1.0	100.0	1	155.0	54.29999999999999															
	223	104.65	15.0	80.0	-50.0	1.0	100.0	1	155.0	54.29999999999999															
	223	245.00000000000003	62.5	150.0	-25.0	1.0	100.0	1	350.0	140.0															
	301	18.0	5.0	10.0	0.0	1.0	100.0	1	20.0	16.0															
	301	18.0	5.0	10.0	0.0	1.0	100.0	1	20.0	16.0															
	301	45.6	2.5	30.0	-25.0	1.0	100.0	1	76.0	15.2															
	301	45.6	2.5	30.0	-25.0	1.0	100.0	1	76.0	15.2															
	302	18.0	5.0	10.0	0.0	1.0	100.0	1	20.0	16.0															
	302	18.0	5.0	10.0	0.0	1.0	100.0	1	20.0	16.0															
	302	45.6	2.5	30.0	-25.0	1.0	100.0	1	76.0	15.2															
	302	45.6	2.5	30.0	-25.0	1.0	100.0	1	76.0	15.2															
	307	62.5	30.0	60.0	0.0	1.0	100.0	1	100.0	25.0															
	307	62.5	30.0	60.0	0.0	1.0	100.0	1	100.0	25.0															
	307	62.5	30.0	60.0	0.0	1.0	100.0	1	100.0	25.0															
	313	133.0	40.0	80.0	0.0	1.0	100.0	1	197.0	69.0															
	313	133.0	40.0	80.0	0.0	1.0	100.0	1	197.0	69.0															
	313	133.0	40.0	80.0	0.0	1.0	100.0	1	197.0	69.0															
	314	0.0	75.0	200.0	-50.0	1.0	100.0	1	0.0	0.0															
	315	7.200000000000001	3.0	6.0	0.0	1.0	100.0	1	12.0	2.4															
	315	7.200000000000001	3.0	6.0	0.0	1.0	100.0	1	12.0	2.4															
	315	7.200000000000001	3.0	6.0	0.0	1.0	100.0	1	12.0	2.4															
	315	7.200000000000001	3.0	6.0	0.0	1.0	100.0	1	12.0	2.4															
	315	7.200000000000001	3.0	6.0	0.0	1.0	100.0	1	12.0	2.4															
	315	104.65	15.0	80.0	-50.0	1.0	100.0	1	155.0	54.29999999999999															
	316	104.65	15.0	80.0	-50.0	1.0	100.0	1	155.0	54.29999999999999															
	318	250.0	75.0	200.0	-50.0	1.0	100.0	1	400.0	100.0															
	321	250.0	75.0	200.0	-50.0	1.0	100.0	1	400.0	100.0															
	322	30.0	3.0	16.0	-10.0	1.0	100.0	1	50.0	10.0															
	322	30.0	3.0	16.0	-10.0	1.0	100.0	1	50.0	10.0															
	322	30.0	3.0	16.0	-10.0	1.0	100.0	1	50.0	10.0															
	322	30.0	3.0	16.0	-10.0	1.0	100.0	1	50.0	10.0															
	322	30.0	3.0	16.0	-10.0	1.0	100.0	1	50.0	10.0															
	322	30.0	3.0	16.0	-10.0	1.0	100.0	1	50.0	10.0															
	323	104.65	15.0	80.0	-50.0	1.0	100.0	1	155.0	54.29999999999999															
	323	104.65	15.0	80.0	-50.0	1.0	100.0	1	155.0	54.29999999999999															
	323	245.00000000000003	62.5	150.0	-25.0	1.0	100.0	1	350.0	140.0															
];

%% branch data
%    f_bus    t_bus    r    x    b    rateA    rateB    rateC    ratio    angle    status    angmin    angmax
mpc.branch = [
	101	102	0.0029866010702829897	0.013937471661167947	0.38923914049068625	175.0	193.0	200.0	0	0	1	-29.999999999999996	29.999999999999996								
	101	103	0.053669248359379584	0.20589475239559818	0.08150550661584963	175.0	208.0	220.00000000000003	0	0	1	-29.999999999999996	29.999999999999996								
	101	105	0.02209177993583043	0.08535460426974527	0.006913952680990295	175.0	208.0	220.00000000000003	0	0	1	-29.999999999999996	29.999999999999996								
	102	104	0.032757987870262226	0.12606861990674123	0.005247762265281506	175.0	208.0	220.00000000000003	0	0	1	-29.999999999999996	29.999999999999996								
	102	106	0.04923298815267878	0.18905467423934155	0.10163375938639471	175.0	208.0	220.00000000000003	0	0	1	-29.999999999999996	29.999999999999996								
	103	109	0.030659542177477208	0.11769308119119756	0.005246388828073921	175.0	208.0	220.00000000000003	0	0	1	-29.999999999999996	29.999999999999996								
	103	124	0.002129589653855081	0.0894427610954828	0.26176568926079496	400.0	509.99999999999994	600.0	1.015	0.0	1	-29.999999999999996	29.999999999999996								
	104	109	0.026960319815796496	0.10384715776446003	0.07980707949865395	175.0	208.0	220.00000000000003	0	0	1	-29.999999999999996	29.999999999999996								
	105	110	0.023266583444469847	0.08901997140870281	0.005248532608873724	175.0	208.0	220.00000000000003	0	0	1	-29.999999999999996	29.999999999999996								
	106	110	0.014072848675700666	0.06131741207322976	2.5127061276056164	175.0	193.0	200.0	0	0	1	-29.999999999999996	29.999999999999996								
	107	108	0.015864758368100203	0.06048439127133324	0.08965444585548318	175.0	208.0	220.00000000000003	0	0	1	-29.999999999999996	29.999999999999996								
	107	203	0.042138325674988555	0.1615302482278429	0.031033757371873995	175.0	208.0	220.00000000000003	0	0	1	-29.999999999999996	29.999999999999996								
	108	109	0.043481124207376445	0.16684617407409286	0.08635255780576141	175.0	208.0	220.00000000000003	0	0	1	-29.999999999999996	29.999999999999996								
	108	110	0.043138137666733495	0.16553006294763764	0.0052460628981110015	175.0	208.0	220.00000000000003	0	0	1	-29.999999999999996	29.999999999999996								
	109	111	0.0015841803238845545	0.06653557191706429	0.005246271622058807	400.0	509.99999999999994	600.0	1.03	0.0	1	-29.999999999999996	29.999999999999996								
	109	112	0.0019463752890286202	0.08174775889877839	0.0052460926493405995	400.0	509.99999999999994	600.0	1.03	0.0	1	-29.999999999999996	29.999999999999996								
	110	111	0.0020821947259676747	0.08745217417390812	0.152528869648877	400.0	509.99999999999994	600.0	1.015	0.0	1	-29.999999999999996	29.999999999999996								
	110	112	0.002509584720284374	0.10540255027603118	0.005246348019912431	400.0	509.99999999999994	600.0	1.015	0.0	1	-29.999999999999996	29.999999999999996								
	111	113	0.005944743000378549	0.047557943987420914	0.14711213374380636	500.0	600.0	625.0	0	0	1	-29.999999999999996	29.999999999999996								
	111	114	0.005005379128398727	0.04204518466374652	0.1584522232803298	500.0	600.0	625.0	0	0	1	-29.999999999999996	29.999999999999996								
	112	113	0.0057244140456641675	0.04579531234917285	0.1647326639164893	500.0	600.0	625.0	0	0	1	-29.999999999999996	29.999999999999996								
	112	123	0.011593823610457315	0.09371674072766092	0.22986538820920818	500.0	600.0	625.0	0	0	1	-29.999999999999996	29.999999999999996								
	113	123	0.010832957289801623	0.08567884391392812	0.18835456908110873	500.0	600.0	625.0	0	0	1	-29.999999999999996	29.999999999999996								
	113	215	0.010581297880195758	0.07935973402032653	0.17135244094562654	500.0	600.0	625.0	0	0	1	-29.999999999999996	29.999999999999996								
	114	116	0.004901091480000186	0.05783287939777588	0.088152985311303	500.0	600.0	625.0	0	0	1	-29.999999999999996	29.999999999999996								
	115	116	0.002012602026746743	0.01710711722636195	0.03890839126686467	500.0	600.0	625.0	0	0	1	-29.999999999999996	29.999999999999996								
	115	121	0.005863101760708513	0.047881997696172296	0.00524624103959633	500.0	600.0	625.0	0	0	1	-29.999999999999996	29.999999999999996								
	115	121	0.005987020064938342	0.048893997179542216	0.09719134579290582	500.0	600.0	625.0	0	0	1	-29.999999999999996	29.999999999999996								
	115	124	0.007008471176300969	0.05206292872885244	0.005247205591122691	500.0	600.0	625.0	0	0	1	-29.999999999999996	29.999999999999996								
	116	117	0.002973930900153434	0.02577406779840955	0.15312672301638394	500.0	600.0	625.0	0	0	1	-29.999999999999996	29.999999999999996								
	116	119	0.002998731282980957	0.02299027316755179	0.035158084525890275	500.0	600.0	625.0	0	0	1	-29.999999999999996	29.999999999999996								
	117	118	0.0019996467879833226	0.013997527515532456	0.04800206877643657	500.0	600.0	625.0	0	0	1	-29.999999999999996	29.999999999999996								
	117	122	0.014024308026463653	0.10518231004096092	0.21473571288016494	500.0	600.0	625.0	0	0	1	-29.999999999999996	29.999999999999996								
	118	121	0.0029742025706242744	0.025776422275173662	0.3021902036251468	500.0	600.0	625.0	0	0	1	-29.999999999999996	29.999999999999996								
	118	121	0.003017718146376936	0.02615355726486858	0.14128894280041102	500.0	600.0	625.0	0	0	1	-29.999999999999996	29.999999999999996								
	119	120	0.0049922772168502555	0.039938217723556164	0.062955155466961	500.0	600.0	625.0	0	0	1	-29.999999999999996	29.999999999999996								
	119	120	0.004850895104368623	0.03880716082465175	0.11362661587568774	500.0	600.0	625.0	0	0	1	-29.999999999999996	29.999999999999996								
	120	123	0.0030321167710143254	0.02223552298586376	0.005249338270457176	500.0	600.0	625.0	0	0	1	-29.999999999999996	29.999999999999996								
	120	123	0.0029967724297082655	0.021976331149675395	0.06496112057720436	500.0	600.0	625.0	0	0	1	-29.999999999999996	29.999999999999996								
	121	122	0.009046006741263664	0.06834760644717419	0.09122407357716732	500.0	600.0	625.0	0	0	1	-29.999999999999996	29.999999999999996								
	123	217	0.009844877973807998	0.07285209694489221	0.08638536478244097	500.0	600.0	625.0	0	0	1	-29.999999999999996	29.999999999999996								
	201	202	0.0030158858624688084	0.014074134024697147	0.4831462827253302	175.0	193.0	200.0	0	0	1	-29.999999999999996	29.999999999999996								
	201	203	0.06000795170795542	0.2302123232658039	0.005246626445626572	175.0	208.0	220.00000000000003	0	0	1	-29.999999999999996	29.999999999999996								
	201	205	0.022108253457239123	0.08541825196458501	0.005246681732826724	175.0	208.0	220.00000000000003	0	0	1	-29.999999999999996	29.999999999999996								
	202	204	0.032892178563790946	0.12658505075970478	0.08021521434681	175.0	208.0	220.00000000000003	0	0	1	-29.999999999999996	29.999999999999996								
	202	206	0.052698452476593265	0.20236205721627354	0.018362661523073986	175.0	208.0	220.00000000000003	0	0	1	-29.999999999999996	29.999999999999996								
	203	209	0.03082124942922372	0.11831382837955513	0.06562758180742835	175.0	208.0	220.00000000000003	0	0	1	-29.999999999999996	29.999999999999996								
	203	224	0.0021167338096700038	0.08890281557954877	0.005246206793631501	400.0	509.99999999999994	600.0	1.015	0.0	1	-29.999999999999996	29.999999999999996								
	204	209	0.026860720021406673	0.10346351411190977	0.06341128479456616	175.0	208.0	220.00000000000003	0	0	1	-29.999999999999996	29.999999999999996								
	205	210	0.023532101415587335	0.09003586625432322	0.2771200236423214	175.0	208.0	220.00000000000003	0	0	1	-29.999999999999996	29.999999999999996								
	206	210	0.014019132073194225	0.061083361161766	2.459758991942184	175.0	193.0	200.0	0	0	1	-29.999999999999996	29.999999999999996								
	207	208	0.0160152882387752	0.061058286403753985	0.05788613357814464	175.0	208.0	220.00000000000003	0	0	1	-29.999999999999996	29.999999999999996								
	208	209	0.042754618290347435	0.16405841880103697	0.10811461136025344	175.0	208.0	220.00000000000003	0	0	1	-29.999999999999996	29.999999999999996								
	208	210	0.04325360340877081	0.1659731291722656	0.018898156570893967	175.0	208.0	220.00000000000003	0	0	1	-29.999999999999996	29.999999999999996								
	209	211	0.0020570280664434486	0.08639517483072327	0.005246109515306809	400.0	509.99999999999994	600.0	1.03	0.0	1	-29.999999999999996	29.999999999999996								
	209	212	0.002204042715997927	0.09256978914690212	0.0675947933214487	400.0	509.99999999999994	600.0	1.03	0.0	1	-29.999999999999996	29.999999999999996								
	210	211	0.0023170935447723996	0.0973179226661425	0.005246870253827688	400.0	509.99999999999994	600.0	1.015	0.0	1	-29.999999999999996	29.999999999999996								
	210	212	0.001940330248334416	0.08149386693646621	0.005246095523734979	400.0	509.99999999999994	600.0	1.015	0.0	1	-29.999999999999996	29.999999999999996								
	211	213	0.0060255620019862965	0.04820449599864273	0.1916631136299885	500.0	600.0	625.0	0	0	1	-29.999999999999996	29.999999999999996								
	211	214	0.004991540764956861	0.041928942410797254	0.1976284240347867	500.0	600.0	625.0	0	0	1	-29.999999999999996	29.999999999999996								
	212	213	0.006173679292171791	0.04938943431661753	0.005246078451274545	500.0	600.0	625.0	0	0	1	-29.999999999999996	29.999999999999996								
	212	223	0.011885048594037731	0.09607080932582507	0.19806627962514073	500.0	600.0	625.0	0	0	1	-29.999999999999996	29.999999999999996								
	213	223	0.010972478600861896	0.08678233064035579	0.16572024266874058	500.0	600.0	625.0	0	0	1	-29.999999999999996	29.999999999999996								
	214	216	0.005013952969038283	0.05916464496270771	0.005246099028480095	500.0	600.0	625.0	0	0	1	-29.999999999999996	29.999999999999996								
	215	216	0.0019983739562820426	0.016986178627437037	0.005246195789182038	500.0	600.0	625.0	0	0	1	-29.999999999999996	29.999999999999996								
	215	221	0.006020042651257138	0.049163681634094146	0.1288025673563842	500.0	600.0	625.0	0	0	1	-29.999999999999996	29.999999999999996								
	215	221	0.006209360740525818	0.050709779361194016	0.20893742806645274	500.0	600.0	625.0	0	0	1	-29.999999999999996	29.999999999999996								
	215	224	0.006976255547253199	0.05182361262626623	0.04915339892528324	500.0	600.0	625.0	0	0	1	-29.999999999999996	29.999999999999996								
	216	217	0.003011196460989657	0.02609703599217147	0.0730557225089183	500.0	600.0	625.0	0	0	1	-29.999999999999996	29.999999999999996								
	216	219	0.0029784053387063455	0.02283444092815386	0.27106379485469095	500.0	600.0	625.0	0	0	1	-29.999999999999996	29.999999999999996								
	217	218	0.002012050977464736	0.014084356841895523	0.005272477282909343	500.0	600.0	625.0	0	0	1	-29.999999999999996	29.999999999999996								
	217	222	0.01450870412211972	0.10881528074232835	0.22709946461728425	500.0	600.0	625.0	0	0	1	-29.999999999999996	29.999999999999996								
	218	221	0.0030204243337534267	0.026177010888799226	0.09148410817427065	500.0	600.0	625.0	0	0	1	-29.999999999999996	29.999999999999996								
	218	221	0.0029946922986105844	0.025953999917657303	0.04855061335048423	500.0	600.0	625.0	0	0	1	-29.999999999999996	29.999999999999996								
	219	220	0.00503073675643501	0.040245894039963905	0.1788225397654415	500.0	600.0	625.0	0	0	1	-29.999999999999996	29.999999999999996								
	219	220	0.005117403510014237	0.04093922806797836	0.0714543769943512	500.0	600.0	625.0	0	0	1	-29.999999999999996	29.999999999999996								
	220	223	0.003000425982918926	0.022003123873211138	0.052714261210570955	500.0	600.0	625.0	0	0	1	-29.999999999999996	29.999999999999996								
	220	223	0.0030103640064210054	0.022076002712210708	0.05053039965467136	500.0	600.0	625.0	0	0	1	-29.999999999999996	29.999999999999996								
	221	222	0.009044249520658592	0.06833432966973318	0.21098354505497974	500.0	600.0	625.0	0	0	1	-29.999999999999996	29.999999999999996								
	301	302	0.002992925722937575	0.01396698670688812	0.44762980172867195	175.0	193.0	200.0	0	0	1	-29.999999999999996	29.999999999999996								
	301	303	0.05804030329354349	0.22266370849105982	0.08116084396514459	175.0	208.0	220.00000000000003	0	0	1	-29.999999999999996	29.999999999999996								
	301	305	0.022154062018294625	0.08559523958710684	0.07340342330895865	175.0	208.0	220.00000000000003	0	0	1	-29.999999999999996	29.999999999999996								
	302	304	0.032867738335735454	0.12649099291415414	0.005246212488004915	175.0	208.0	220.00000000000003	0	0	1	-29.999999999999996	29.999999999999996								
	302	306	0.05089935372858716	0.19545351802806965	0.005246449747790632	175.0	208.0	220.00000000000003	0	0	1	-29.999999999999996	29.999999999999996								
	303	309	0.031076400312197154	0.11929327853794609	0.005246119335521456	175.0	208.0	220.00000000000003	0	0	1	-29.999999999999996	29.999999999999996								
	303	324	0.0018010094221072612	0.07564239321689643	0.007646267177563349	400.0	509.99999999999994	600.0	1.015	0.0	1	-29.999999999999996	29.999999999999996								
	304	309	0.026487502238015312	0.1020259345047957	0.03546661281746958	175.0	208.0	220.00000000000003	0	0	1	-29.999999999999996	29.999999999999996								
	305	310	0.023704969486992994	0.09069727452737873	0.012537127880499805	175.0	208.0	220.00000000000003	0	0	1	-29.999999999999996	29.999999999999996								
	306	310	0.013872638654068181	0.060445068408283495	2.4548699967089305	175.0	193.0	200.0	0	0	1	-29.999999999999996	29.999999999999996								
	307	308	0.015920873641266965	0.06069833075220867	0.17614964856269055	175.0	208.0	220.00000000000003	0	0	1	-29.999999999999996	29.999999999999996								
	308	309	0.04528265118800746	0.17375901007687436	0.09876235767547518	175.0	208.0	220.00000000000003	0	0	1	-29.999999999999996	29.999999999999996								
	308	310	0.04328833277544317	0.16610639300363136	0.06281297156521737	175.0	208.0	220.00000000000003	0	0	1	-29.999999999999996	29.999999999999996								
	309	311	0.0020157385650467884	0.08466101605654906	0.02316012903590617	400.0	509.99999999999994	600.0	1.03	0.0	1	-29.999999999999996	29.999999999999996								
	309	312	0.0019863818278091708	0.08342803333042073	0.005246069619766858	400.0	509.99999999999994	600.0	1.03	0.0	1	-29.999999999999996	29.999999999999996								
	310	311	0.0016722582580279489	0.07023484471107239	0.0052461179057128994	400.0	509.99999999999994	600.0	1.015	0.0	1	-29.999999999999996	29.999999999999996								
	310	312	0.0020047899328643312	0.08420117337208259	0.009047285806075164	400.0	509.99999999999994	600.0	1.015	0.0	1	-29.999999999999996	29.999999999999996								
	311	313	0.0059998995614945925	0.04799919647587246	0.09134585353839773	500.0	600.0	625.0	0	0	1	-29.999999999999996	29.999999999999996								
	311	314	0.004780087175467416	0.04015273226101507	0.11800070065524679	500.0	600.0	625.0	0	0	1	-29.999999999999996	29.999999999999996								
	312	313	0.006022851048315055	0.04818280836796638	0.10945373873066253	500.0	600.0	625.0	0	0	1	-29.999999999999996	29.999999999999996								
	312	323	0.011826717906557769	0.09559930295593953	0.2146262168726284	500.0	600.0	625.0	0	0	1	-29.999999999999996	29.999999999999996								
	313	323	0.011011597749031763	0.0870917275439144	0.18219799363366632	500.0	600.0	625.0	0	0	1	-29.999999999999996	29.999999999999996								
	314	316	0.004794516943515793	0.05657529986912983	0.08889585829927134	500.0	600.0	625.0	0	0	1	-29.999999999999996	29.999999999999996								
	315	316	0.0019901621961998994	0.01691637866674568	0.024644873543950868	500.0	600.0	625.0	0	0	1	-29.999999999999996	29.999999999999996								
	315	321	0.005972822927897644	0.048778053894549075	0.20074626402011686	500.0	600.0	625.0	0	0	1	-29.999999999999996	29.999999999999996								
	315	321	0.00599245198391502	0.04893835785183563	0.05222475331467346	500.0	600.0	625.0	0	0	1	-29.999999999999996	29.999999999999996								
	315	324	0.007067675415663538	0.05250273165572263	0.12012309615429947	500.0	600.0	625.0	0	0	1	-29.999999999999996	29.999999999999996								
	316	317	0.0029975649831727163	0.025978896517818883	0.19994972224866334	500.0	600.0	625.0	0	0	1	-29.999999999999996	29.999999999999996								
	316	319	0.0030022097234525588	0.023016941211153056	0.005246057101778405	500.0	600.0	625.0	0	0	1	-29.999999999999996	29.999999999999996								
	317	318	0.002004983066633865	0.014034881466081225	0.011679847264228145	500.0	600.0	625.0	0	0	1	-29.999999999999996	29.999999999999996								
	317	322	0.01408659942123179	0.105649495502544	0.1966628952125062	500.0	600.0	625.0	0	0	1	-29.999999999999996	29.999999999999996								
	318	321	0.002991328373383098	0.025924845899010944	0.096597051697394	500.0	600.0	625.0	0	0	1	-29.999999999999996	29.999999999999996								
	318	321	0.0029994526093247913	0.025995255943808752	0.04059722447855253	500.0	600.0	625.0	0	0	1	-29.999999999999996	29.999999999999996								
	319	320	0.004957137140640132	0.03965709711432316	0.06014778371893314	500.0	600.0	625.0	0	0	1	-29.999999999999996	29.999999999999996								
	319	320	0.00491127930187119	0.0392902344044771	0.06707035053514177	500.0	600.0	625.0	0	0	1	-29.999999999999996	29.999999999999996								
	320	323	0.0029845670342442798	0.021886824916320453	0.005247038874426332	500.0	600.0	625.0	0	0	1	-29.999999999999996	29.999999999999996								
	320	323	0.003052521078925357	0.022385154577208285	0.026740937725168876	500.0	600.0	625.0	0	0	1	-29.999999999999996	29.999999999999996								
	321	322	0.009049830157118542	0.06837649447911189	0.14869408374182472	500.0	600.0	625.0	0	0	1	-29.999999999999996	29.999999999999996								
	325	121	0.012087656386346048	0.09770855561023634	0.11412551930439518	500.0	600.0	625.0	0	0	1	-29.999999999999996	29.999999999999996								
	318	223	0.013495107363568062	0.10796085866998946	0.005247034937149456	500.0	600.0	625.0	0	0	1	-29.999999999999996	29.999999999999996								
	323	325	4.85954763715997e-6	0.008999524893188074	0.16454535383666605	722.0	893.0	893.0	0	0	1	-29.999999999999996	29.999999999999996								
];

%%-----  OPF Data  -----%%
%% cost data
%    1    startup    shutdown    n    x1    y1    ...    xn    yn
%    2    startup    shutdown    n    c(n-1)    ...    c0
mpc.gencost = [
	2	1500.0	0.0	3	0.0	130.0	400.6849
	2	1500.0	0.0	3	0.0	130.0	400.6849
	2	1500.0	0.0	3	0.014142	16.0811	212.3076
	2	1500.0	0.0	3	0.014142	16.0811	212.3076
	2	1500.0	0.0	3	0.0	130.0	400.6849
	2	1500.0	0.0	3	0.0	130.0	400.6849
	2	1500.0	0.0	3	0.014142	16.0811	212.3076
	2	1500.0	0.0	3	0.014142	16.0811	212.3076
	2	1500.0	0.0	3	0.052672	43.6615	781.521
	2	1500.0	0.0	3	0.052672	43.6615	781.521
	2	1500.0	0.0	3	0.052672	43.6615	781.521
	2	1500.0	0.0	3	0.007170000000000001	48.5804	832.7575
	2	1500.0	0.0	3	0.007170000000000001	48.5804	832.7575
	2	1500.0	0.0	3	0.007170000000000001	48.5804	832.7575
	2	1500.0	0.0	3	0.0	0.0	0.0
	2	1500.0	0.0	3	0.328412	56.564	86.3852
	2	1500.0	0.0	3	0.328412	56.564	86.3852
	2	1500.0	0.0	3	0.328412	56.564	86.3852
	2	1500.0	0.0	3	0.328412	56.564	86.3852
	2	1500.0	0.0	3	0.328412	56.564	86.3852
	2	1500.0	0.0	3	0.008342	12.3883	382.2391
	2	1500.0	0.0	3	0.008342	12.3883	382.2391
	2	1500.0	0.0	3	0.000213	4.4231	395.3749
	2	1500.0	0.0	3	0.000213	4.4231	395.3749
	2	1500.0	0.0	3	0.0	0.001	0.001
	2	1500.0	0.0	3	0.0	0.001	0.001
	2	1500.0	0.0	3	0.0	0.001	0.001
	2	1500.0	0.0	3	0.0	0.001	0.001
	2	1500.0	0.0	3	0.0	0.001	0.001
	2	1500.0	0.0	3	0.0	0.001	0.001
	2	1500.0	0.0	3	0.008342	12.3883	382.2391
	2	1500.0	0.0	3	0.008342	12.3883	382.2391
	2	1500.0	0.0	3	0.004895000000000001	11.8495	665.1094
	2	1500.0	0.0	3	0.0	130.0	400.6849
	2	1500.0	0.0	3	0.0	130.0	400.6849
	2	1500.0	0.0	3	0.014142	16.0811	212.3076
	2	1500.0	0.0	3	0.014142	16.0811	212.3076
	2	1500.0	0.0	3	0.0	130.0	400.6849
	2	1500.0	0.0	3	0.0	130.0	400.6849
	2	1500.0	0.0	3	0.014142	16.0811	212.3076
	2	1500.0	0.0	3	0.014142	16.0811	212.3076
	2	1500.0	0.0	3	0.052672	43.6615	781.521
	2	1500.0	0.0	3	0.052672	43.6615	781.521
	2	1500.0	0.0	3	0.052672	43.6615	781.521
	2	1500.0	0.0	3	0.007170000000000001	48.5804	832.7575
	2	1500.0	0.0	3	0.007170000000000001	48.5804	832.7575
	2	1500.0	0.0	3	0.007170000000000001	48.5804	832.7575
	2	1500.0	0.0	3	0.0	0.0	0.0
	2	1500.0	0.0	3	0.328412	56.564	86.3852
	2	1500.0	0.0	3	0.328412	56.564	86.3852
	2	1500.0	0.0	3	0.328412	56.564	86.3852
	2	1500.0	0.0	3	0.328412	56.564	86.3852
	2	1500.0	0.0	3	0.328412	56.564	86.3852
	2	1500.0	0.0	3	0.008342	12.3883	382.2391
	2	1500.0	0.0	3	0.008342	12.3883	382.2391
	2	1500.0	0.0	3	0.000213	4.4231	395.3749
	2	1500.0	0.0	3	0.000213	4.4231	395.3749
	2	1500.0	0.0	3	0.0	0.001	0.001
	2	1500.0	0.0	3	0.0	0.001	0.001
	2	1500.0	0.0	3	0.0	0.001	0.001
	2	1500.0	0.0	3	0.0	0.001	0.001
	2	1500.0	0.0	3	0.0	0.001	0.001
	2	1500.0	0.0	3	0.0	0.001	0.001
	2	1500.0	0.0	3	0.008342	12.3883	382.2391
	2	1500.0	0.0	3	0.008342	12.3883	382.2391
	2	1500.0	0.0	3	0.004895000000000001	11.8495	665.1094
	2	1500.0	0.0	3	0.0	130.0	400.6849
	2	1500.0	0.0	3	0.0	130.0	400.6849
	2	1500.0	0.0	3	0.014142	16.0811	212.3076
	2	1500.0	0.0	3	0.014142	16.0811	212.3076
	2	1500.0	0.0	3	0.0	130.0	400.6849
	2	1500.0	0.0	3	0.0	130.0	400.6849
	2	1500.0	0.0	3	0.014142	16.0811	212.3076
	2	1500.0	0.0	3	0.014142	16.0811	212.3076
	2	1500.0	0.0	3	0.052672	43.6615	781.521
	2	1500.0	0.0	3	0.052672	43.6615	781.521
	2	1500.0	0.0	3	0.052672	43.6615	781.521
	2	1500.0	0.0	3	0.007170000000000001	48.5804	832.7575
	2	1500.0	0.0	3	0.007170000000000001	48.5804	832.7575
	2	1500.0	0.0	3	0.007170000000000001	48.5804	832.7575
	2	1500.0	0.0	3	0.0	0.0	0.0
	2	1500.0	0.0	3	0.328412	56.564	86.3852
	2	1500.0	0.0	3	0.328412	56.564	86.3852
	2	1500.0	0.0	3	0.328412	56.564	86.3852
	2	1500.0	0.0	3	0.328412	56.564	86.3852
	2	1500.0	0.0	3	0.328412	56.564	86.3852
	2	1500.0	0.0	3	0.008342	12.3883	382.2391
	2	1500.0	0.0	3	0.008342	12.3883	382.2391
	2	1500.0	0.0	3	0.000213	4.4231	395.3749
	2	1500.0	0.0	3	0.000213	4.4231	395.3749
	2	1500.0	0.0	3	0.0	0.001	0.001
	2	1500.0	0.0	3	0.0	0.001	0.001
	2	1500.0	0.0	3	0.0	0.001	0.001
	2	1500.0	0.0	3	0.0	0.001	0.001
	2	1500.0	0.0	3	0.0	0.001	0.001
	2	1500.0	0.0	3	0.0	0.001	0.001
	2	1500.0	0.0	3	0.008342	12.3883	382.2391
	2	1500.0	0.0	3	0.008342	12.3883	382.2391
	2	1500.0	0.0	3	0.004895000000000001	11.8495	665.1094
];

